15

O      -2.49910746       0.11213893      -0.01457020
H      -3.27031260       0.11213893      -0.60532966
H      -1.72790232       0.11213893      -0.60532966
O      -2.54892625       2.98961060       1.95146065
H      -2.97275083       2.25561106       2.42619374
H      -3.07765049       3.77363752       2.17396137
O      -2.29744549       2.95251009      -2.74615344
H      -3.06865063       2.95251009      -3.33691290
H      -1.52624035       2.95251009      -3.33691290
O      -5.23256074       1.37999370      -1.18826164
H      -6.00376588       1.37999370      -1.77902110
H      -4.46135560       1.37999370      -1.77902110
O      -4.48010934       0.84101295       2.57567020
H      -5.25131448       0.84101295       1.98491074
H      -3.70890420       0.84101295       1.98491074
